Program Version,EnergyPlus, Version 25.1.0-1c11a3d85f, YMD=2026.03.23 17:16,
Var Type (reported time step),Var Report Type,Variable Name [Units]
Zone,Meter,Electricity:Facility [J]
Zone,Meter,Electricity:Building [J]
Zone,Meter,Electricity:Zone:ZONE_F1 [J]
Zone,Meter,Electricity:SpaceType:GENERAL [J]
Zone,Meter,InteriorLights:Electricity [J]
Zone,Meter,InteriorLights:Electricity:Zone:ZONE_F1 [J]
Zone,Meter,InteriorLights:Electricity:SpaceType:GENERAL [J]
Zone,Meter,General:InteriorLights:Electricity [J]
Zone,Meter,General:InteriorLights:Electricity:Zone:ZONE_F1 [J]
Zone,Meter,General:InteriorLights:Electricity:SpaceType:GENERAL [J]
Zone,Meter,Electricity:Zone:ZONE_F2 [J]
Zone,Meter,InteriorLights:Electricity:Zone:ZONE_F2 [J]
Zone,Meter,General:InteriorLights:Electricity:Zone:ZONE_F2 [J]
Zone,Meter,Electricity:Zone:ZONE_F3 [J]
Zone,Meter,InteriorLights:Electricity:Zone:ZONE_F3 [J]
Zone,Meter,General:InteriorLights:Electricity:Zone:ZONE_F3 [J]
Zone,Meter,EnergyTransfer:Facility [J]
Zone,Meter,EnergyTransfer:Building [J]
Zone,Meter,EnergyTransfer:Zone:ZONE_F1 [J]
Zone,Meter,Heating:EnergyTransfer [J]
Zone,Meter,Heating:EnergyTransfer:Zone:ZONE_F1 [J]
Zone,Meter,General:Heating:EnergyTransfer [J]
Zone,Meter,General:Heating:EnergyTransfer:Zone:ZONE_F1 [J]
Zone,Meter,Cooling:EnergyTransfer [J]
Zone,Meter,Cooling:EnergyTransfer:Zone:ZONE_F1 [J]
Zone,Meter,General:Cooling:EnergyTransfer [J]
Zone,Meter,General:Cooling:EnergyTransfer:Zone:ZONE_F1 [J]
Zone,Meter,EnergyTransfer:Zone:ZONE_F2 [J]
Zone,Meter,Heating:EnergyTransfer:Zone:ZONE_F2 [J]
Zone,Meter,General:Heating:EnergyTransfer:Zone:ZONE_F2 [J]
Zone,Meter,Cooling:EnergyTransfer:Zone:ZONE_F2 [J]
Zone,Meter,General:Cooling:EnergyTransfer:Zone:ZONE_F2 [J]
Zone,Meter,EnergyTransfer:Zone:ZONE_F3 [J]
Zone,Meter,Heating:EnergyTransfer:Zone:ZONE_F3 [J]
Zone,Meter,General:Heating:EnergyTransfer:Zone:ZONE_F3 [J]
Zone,Meter,Cooling:EnergyTransfer:Zone:ZONE_F3 [J]
Zone,Meter,General:Cooling:EnergyTransfer:Zone:ZONE_F3 [J]
Zone,Meter,ElectricityPurchased:Facility [J]
Zone,Meter,ElectricityPurchased:Plant [J]
Zone,Meter,Cogeneration:ElectricityPurchased [J]
Zone,Meter,General:Cogeneration:ElectricityPurchased [J]
Zone,Meter,ElectricitySurplusSold:Facility [J]
Zone,Meter,ElectricitySurplusSold:Plant [J]
Zone,Meter,Cogeneration:ElectricitySurplusSold [J]
Zone,Meter,General:Cogeneration:ElectricitySurplusSold [J]
Zone,Meter,ElectricityNet:Facility [J]
Zone,Meter,ElectricityNet:Plant [J]
Zone,Meter,Cogeneration:ElectricityNet [J]
Zone,Meter,General:Cogeneration:ElectricityNet [J]
Zone,Meter,Carbon Equivalent:Facility [kg]
Zone,Meter,CarbonEquivalentEmissions:Carbon Equivalent [kg]
